2024_89_CemigReconfigurationCases/1_SEsCemig_2/TOTU03/TOTU03ChavesMT.dss
new line.CTR11607 bus1=BMT103388462.2,bus2=BMT103388511.2,Phases=1,LineCode=tieSwitch1,Length=0.001,Units=km,switch=T !numEQ 166471
new line.CTR11685033 bus1=BMTSEGM#58425165.1.2.3,bus2=BMTSEGM#35055099.1.2.3,Phases=3,LineCode=tieSwitch,Length=0.001,Units=km,switch=T !numEQ 
new line.CTR11685059 bus1=BMTSEGM#58425295.1.2.3,bus2=BMTSEGM#35055177.1.2.3,Phases=3,LineCode=tieSwitch,Length=0.001,Units=km,switch=T !numEQ 
new line.CTR11685164 bus1=BMTSEGM#58425820.1.2.3,bus2=BMTSEGM#35055492.1.2.3,Phases=3,LineCode=tieSwitch,Length=0.001,Units=km,switch=T !numEQ 
open line.CTR11685164 term=1
new line.CTR11685176 bus1=BMTSEGM#58425880.1.2.3,bus2=BMTSEGM#35055528.1.2.3,Phases=3,LineCode=tieSwitch,Length=0.001,Units=km,switch=T !numEQ 
open line.CTR11685176 term=1
new line.CTR11685184 bus1=BMTSEGM#58425920.1.2.3,bus2=BMTSEGM#35055552.1.2.3,Phases=3,LineCode=tieSwitch,Length=0.001,Units=km,switch=T !numEQ 
new line.CTR11685200 bus1=BMTSEGM#58426000.1.2.3,bus2=BMTSEGM#35055600.1.2.3,Phases=3,LineCode=tieSwitch,Length=0.001,Units=km,switch=T !numEQ 
new line.CTR11685236 bus1=BMTSEGM#58426180.1.2.3,bus2=BMTSEGM#35055708.1.2.3,Phases=3,LineCode=tieSwitch,Length=0.001,Units=km,switch=T !numEQ 
open line.CTR11685236 term=1
new line.CTR11685244 bus1=BMTSEGM#58426220.1.2.3,bus2=BMTSEGM#35055732.1.2.3,Phases=3,LineCode=tieSwitch,Length=0.001,Units=km,switch=T !numEQ 
new line.CTR11685252 bus1=BMTSEGM#58426260.1.2.3,bus2=BMTSEGM#35055756.1.2.3,Phases=3,LineCode=tieSwitch,Length=0.001,Units=km,switch=T !numEQ 
new line.CTR11685288 bus1=BMTSEGM#58426440.1.2.3,bus2=BMTSEGM#35055864.1.2.3,Phases=3,LineCode=tieSwitch,Length=0.001,Units=km,switch=T !numEQ 
new line.CTR11685296 bus1=BMTSEGM#58426480.1.2.3,bus2=BMTSEGM#35055888.1.2.3,Phases=3,LineCode=tieSwitch,Length=0.001,Units=km,switch=T !numEQ 
new line.CTR11685304 bus1=BMTSEGM#58426520.1.2.3,bus2=BMTSEGM#35055912.1.2.3,Phases=3,LineCode=tieSwitch,Length=0.001,Units=km,switch=T !numEQ 
open line.CTR11685304 term=1
new line.CTR11685332 bus1=BMTSEGM#58426660.1.2.3,bus2=BMTSEGM#35055996.1.2.3,Phases=3,LineCode=tieSwitch,Length=0.001,Units=km,switch=T !numEQ 
new line.CTR11685340 bus1=BMTSEGM#58426700.1.2.3,bus2=BMTSEGM#35056020.1.2.3,Phases=3,LineCode=tieSwitch,Length=0.001,Units=km,switch=T !numEQ 
open line.CTR11685340 term=1
new line.CTR11685356 bus1=BMTSEGM#58426780.1.2.3,bus2=BMTSEGM#35056068.1.2.3,Phases=3,LineCode=tieSwitch,Length=0.001,Units=km,switch=T !numEQ 
new line.CTR11685384 bus1=BMTSEGM#58426920.1.2.3,bus2=BMTSEGM#35056152.1.2.3,Phases=3,LineCode=tieSwitch,Length=0.001,Units=km,switch=T !numEQ 
new line.CTR11685392 bus1=BMTSEGM#58426960.1.2.3,bus2=BMTSEGM#35056176.1.2.3,Phases=3,LineCode=tieSwitch,Length=0.001,Units=km,switch=T !numEQ 
open line.CTR11685392 term=1
new line.CTR11685408 bus1=BMTSEGM#58427040.1.2.3,bus2=BMTSEGM#35056224.1.2.3,Phases=3,LineCode=tieSwitch,Length=0.001,Units=km,switch=T !numEQ 
new line.CTR11685436 bus1=BMTSEGM#58427180.1.2.3,bus2=BMTSEGM#35056308.1.2.3,Phases=3,LineCode=tieSwitch,Length=0.001,Units=km,switch=T !numEQ 
new line.CTR11685452 bus1=BMTSEGM#58427260.1.2.3,bus2=BMTSEGM#35056356.1.2.3,Phases=3,LineCode=tieSwitch,Length=0.001,Units=km,switch=T !numEQ 
new line.CTR11685460 bus1=BMTSEGM#58427300.1.2.3,bus2=BMTSEGM#35056380.1.2.3,Phases=3,LineCode=tieSwitch,Length=0.001,Units=km,switch=T !numEQ 
open line.CTR11685460 term=1
new line.CTR11685488 bus1=BMTSEGM#58427440.1.2.3,bus2=BMTSEGM#35056464.1.2.3,Phases=3,LineCode=tieSwitch,Length=0.001,Units=km,switch=T !numEQ 
new line.CTR11685504 bus1=BMTSEGM#58427520.1.2.3,bus2=BMTSEGM#35056512.1.2.3,Phases=3,LineCode=tieSwitch,Length=0.001,Units=km,switch=T !numEQ 
open line.CTR11685504 term=1
new line.CTR11685512 bus1=BMTSEGM#58427560.1.2.3,bus2=BMTSEGM#35056536.1.2.3,Phases=3,LineCode=tieSwitch,Length=0.001,Units=km,switch=T !numEQ 
new line.CTR129281 bus1=BMT171566584.1.2.3,bus2=BMT171566590.1.2.3,Phases=3,LineCode=tieSwitch,Length=0.001,Units=km,switch=T !numEQ 23142
open line.CTR129281 term=1
new line.CTR1359 bus1=BMT103405318.3,bus2=BMT103406018.3,Phases=1,LineCode=tieSwitch1,Length=0.001,Units=km,switch=T !numEQ 202450
new line.CTR136095 bus1=BMT103364963.3,bus2=BMT103365075.3,Phases=1,LineCode=tieSwitch1,Length=0.001,Units=km,switch=T !numEQ 105801
new line.CTR136158 bus1=BMT103338419.3,bus2=BMT103864140.3,Phases=1,LineCode=tieSwitch1,Length=0.001,Units=km,switch=T !numEQ 105812
new line.CTR136186 bus1=BMT103357403.1,bus2=BMT165184537.1,Phases=1,LineCode=tieSwitch1,Length=0.001,Units=km,switch=T !numEQ 105818
new line.CTR136557 bus1=BMT103397982.2,bus2=BMT103398164.2,Phases=1,LineCode=tieSwitch1,Length=0.001,Units=km,switch=T !numEQ 109933
new line.CTR136585 bus1=BMT103386999.1,bus2=BMT103387426.1,Phases=1,LineCode=tieSwitch1,Length=0.001,Units=km,switch=T !numEQ 109927
new line.CTR136683 bus1=BMT103539760.2,bus2=BMT103542385.2,Phases=1,LineCode=tieSwitch1,Length=0.001,Units=km,switch=T !numEQ 109951
new line.CTR137103 bus1=BMT103397513.2,bus2=BMT103399354.2,Phases=1,LineCode=tieSwitch1,Length=0.001,Units=km,switch=T !numEQ 109749
new line.CTR13711 bus1=BMT153841696.1.2.3,bus2=BMT153843738.1.2.3,Phases=3,LineCode=tieSwitch,Length=0.001,Units=km,switch=T !numEQ 23183
new line.CTR137313 bus1=BMT103407299.2,bus2=BMT176610989.2,Phases=1,LineCode=tieSwitch1,Length=0.001,Units=km,switch=T !numEQ 109730
new line.CTR141209 bus1=BMT176761466.1.2.3,bus2=BMT176761504.1.2.3,Phases=3,LineCode=tieSwitch,Length=0.001,Units=km,switch=T !numEQ 23189
new line.CTR142430 bus1=BMT103384738.1.2.3,bus2=BMT103384794.1.2.3,Phases=3,LineCode=tieSwitch,Length=0.001,Units=km,switch=T !numEQ 117766
new line.CTR1429 bus1=BMT103411205.2,bus2=BMT103415685.2,Phases=1,LineCode=tieSwitch1,Length=0.001,Units=km,switch=T !numEQ 205147
new line.CTR14883 bus1=BMT103325826.2,bus2=BMT157259837.2,Phases=1,LineCode=tieSwitch1,Length=0.001,Units=km,switch=T !numEQ 133372
new line.CTR148835 bus1=BMT103377913.1,bus2=BMT103377927.1,Phases=1,LineCode=tieSwitch1,Length=0.001,Units=km,switch=T !numEQ 166431
new line.CTR157228 bus1=BMT103344775.3,bus2=BMT136485092.3,Phases=1,LineCode=tieSwitch1,Length=0.001,Units=km,switch=T !numEQ 200801
new line.CTR16283 bus1=BMT103543085.2,bus2=BMT165998189.2,Phases=1,LineCode=tieSwitch1,Length=0.001,Units=km,switch=T !numEQ 185479
new line.CTR162989 bus1=BMT148898602.1.2.3,bus2=BMT173951634.1.2.3,Phases=3,LineCode=tieSwitch,Length=0.001,Units=km,switch=T !numEQ 128723
new line.CTR107791 bus1=BMT173193190.1.2.3,bus2=BMT173193391.1.2.3,Phases=3,LineCode=tieSwitch,Length=0.001,Units=km,switch=T !numEQ 77061
new line.CTR107941 bus1=BMT103394496.2,bus2=BMT103394706.2,Phases=1,LineCode=tieSwitch1,Length=0.001,Units=km,switch=T !numEQ 130240
new line.CTR108200 bus1=BMT103382547.1.2.3,bus2=BMT103383674.1.2.3,Phases=3,LineCode=tieSwitch,Length=0.001,Units=km,switch=T !numEQ 201094
new line.CTR118497 bus1=BMT103364669.3,bus2=BMT103364739.3,Phases=1,LineCode=tieSwitch1,Length=0.001,Units=km,switch=T !numEQ 164933
new line.CTR127793 bus1=BMT103344978.3,bus2=BMT136485274.3,Phases=1,LineCode=tieSwitch1,Length=0.001,Units=km,switch=T !numEQ 187251
new line.CTR134541 bus1=BMT171023577.1.2.3,bus2=BMT2876841.1.2.3,Phases=3,LineCode=tieSwitch,Length=0.001,Units=km,switch=T !numEQ 104983
open line.CTR134541 term=1
new line.CTR134639 bus1=BMT103365663.2,bus2=BMT103365803.2,Phases=1,LineCode=tieSwitch1,Length=0.001,Units=km,switch=T !numEQ 105011
new line.CTR134667 bus1=BMT103326841.3,bus2=BMT103326904.3,Phases=1,LineCode=tieSwitch1,Length=0.001,Units=km,switch=T !numEQ 104940
new line.CTR134695 bus1=BMT103368274.3,bus2=BMT164770372.3,Phases=1,LineCode=tieSwitch1,Length=0.001,Units=km,switch=T !numEQ 104944
new line.CTR134723 bus1=BMT103371515.1,bus2=BMT155026346.1,Phases=1,LineCode=tieSwitch1,Length=0.001,Units=km,switch=T !numEQ 104948
new line.CTR134884 bus1=BMT103544149.3,bus2=BMT121231903.3,Phases=1,LineCode=tieSwitch1,Length=0.001,Units=km,switch=T !numEQ 166198
new line.CTR134947 bus1=BMT103343865.3,bus2=BMT136485463.3,Phases=1,LineCode=tieSwitch1,Length=0.001,Units=km,switch=T !numEQ 104918
new line.CTR135227 bus1=BMT103404226.3,bus2=BMT103409469.3,Phases=1,LineCode=tieSwitch1,Length=0.001,Units=km,switch=T !numEQ 109517
new line.CTR135395 bus1=BMT103335164.3,bus2=BMT150883843.3,Phases=1,LineCode=tieSwitch1,Length=0.001,Units=km,switch=T !numEQ 109481
new line.CTR139945 bus1=BMT103392298.1,bus2=BMT167936313.1,Phases=1,LineCode=tieSwitch1,Length=0.001,Units=km,switch=T !numEQ 113199
new line.CTR140260 bus1=BMT103355548.3,bus2=BMT103355562.3,Phases=1,LineCode=tieSwitch1,Length=0.001,Units=km,switch=T !numEQ 200304
new line.CTR141163 bus1=BMT103364683.3,bus2=BMT103364690.3,Phases=1,LineCode=tieSwitch1,Length=0.001,Units=km,switch=T !numEQ 113683
new line.CTR147113 bus1=BMT103397485.2,bus2=BMT103399382.2,Phases=1,LineCode=tieSwitch1,Length=0.001,Units=km,switch=T !numEQ 163897
new line.CTR147169 bus1=BMT103395546.1,bus2=BMT103396981.1,Phases=1,LineCode=tieSwitch1,Length=0.001,Units=km,switch=T !numEQ 163898
new line.CTR147239 bus1=BMT103371760.1,bus2=BMT155026182.1,Phases=1,LineCode=tieSwitch1,Length=0.001,Units=km,switch=T !numEQ 165857
new line.CTR147267 bus1=BMT103373818.1,bus2=BMT103373832.1,Phases=1,LineCode=tieSwitch1,Length=0.001,Units=km,switch=T !numEQ 165858
new line.CTR147393 bus1=BMT103393096.1,bus2=BMT103401216.1,Phases=1,LineCode=tieSwitch1,Length=0.001,Units=km,switch=T !numEQ 163686
new line.CTR148331 bus1=BMT103361491.3,bus2=BMT103361505.3,Phases=1,LineCode=tieSwitch1,Length=0.001,Units=km,switch=T !numEQ 167417
new line.CTR148387 bus1=BMT103368932.3,bus2=BMT159926682.3,Phases=1,LineCode=tieSwitch1,Length=0.001,Units=km,switch=T !numEQ 143579
new line.CTR150739 bus1=BMT103370654.3,bus2=BMT104369638.3,Phases=1,LineCode=tieSwitch1,Length=0.001,Units=km,switch=T !numEQ 165610
new line.CTR150767 bus1=BMT157784623.1,bus2=BMT157784685.1,Phases=1,LineCode=tieSwitch1,Length=0.001,Units=km,switch=T !numEQ 165870
new line.CTR150795 bus1=BMT103383632.2,bus2=BMT103383646.2,Phases=1,LineCode=tieSwitch1,Length=0.001,Units=km,switch=T !numEQ 165614
new line.CTR150851 bus1=BMT103334464.3,bus2=BMT151318110.3,Phases=1,LineCode=tieSwitch1,Length=0.001,Units=km,switch=T !numEQ 164930
new line.CTR152027 bus1=BMT103393684.2,bus2=BMT160420580.2,Phases=1,LineCode=tieSwitch1,Length=0.001,Units=km,switch=T !numEQ 144585
new line.CTR15849 bus1=BMT103360826.1,bus2=BMT103361043.1,Phases=1,LineCode=tieSwitch1,Length=0.001,Units=km,switch=T !numEQ 101853
new line.CTR16577 bus1=BMT103345174.2,bus2=BMT103345181.2,Phases=1,LineCode=tieSwitch1,Length=0.001,Units=km,switch=T !numEQ 22176
new line.CTR175162 bus1=BMT103364578.3,bus2=BMT103364620.3,Phases=1,LineCode=tieSwitch1,Length=0.001,Units=km,switch=T !numEQ 144839
new line.CTR175295 bus1=BMT103358614.3,bus2=BMT103358635.3,Phases=1,LineCode=tieSwitch1,Length=0.001,Units=km,switch=T !numEQ 105793
new line.CTR175309 bus1=BMT103364802.3,bus2=BMT159985515.3,Phases=1,LineCode=tieSwitch1,Length=0.001,Units=km,switch=T !numEQ 105799
new line.CTR175750 bus1=BMT103404667.1.2.3,bus2=BMT149939010.1.2.3,Phases=3,LineCode=tieSwitch,Length=0.001,Units=km,switch=T !numEQ 22484
new line.CTR175806 bus1=BMT103334142.1,bus2=BMT103334177.1,Phases=1,LineCode=tieSwitch1,Length=0.001,Units=km,switch=T !numEQ 109479
new line.CTR176387 bus1=BMT103367567.1.2.3,bus2=BMT156483106.1.2.3,Phases=3,LineCode=tieSwitch,Length=0.001,Units=km,switch=T !numEQ 104910
new line.CTR176401 bus1=BMT103344831.3,bus2=BMT136485141.3,Phases=1,LineCode=tieSwitch1,Length=0.001,Units=km,switch=T !numEQ 104921
new line.CTR176429 bus1=BMT103326701.3,bus2=BMT103327037.3,Phases=1,LineCode=tieSwitch1,Length=0.001,Units=km,switch=T !numEQ 104939
new line.CTR176471 bus1=BMT103343564.2,bus2=BMT103345629.2,Phases=1,LineCode=tieSwitch1,Length=0.001,Units=km,switch=T !numEQ 104916
new line.CTR176506 bus1=BMT103379796.1,bus2=BMT148832434.1,Phases=1,LineCode=tieSwitch1,Length=0.001,Units=km,switch=T !numEQ 104930
new line.CTR176520 bus1=BMT103344089.3,bus2=BMT136485540.3,Phases=1,LineCode=tieSwitch1,Length=0.001,Units=km,switch=T !numEQ 104923
new line.CTR176534 bus1=BMT103380454.1,bus2=BMT170440526.1,Phases=1,LineCode=tieSwitch1,Length=0.001,Units=km,switch=T !numEQ 104927
new line.CTR176562 bus1=BMT103371606.1,bus2=BMT163674676.1,Phases=1,LineCode=tieSwitch1,Length=0.001,Units=km,switch=T !numEQ 104949
new line.CTR176590 bus1=BMT103329494.1.2.3,bus2=BMT103332441.1.2.3,Phases=3,LineCode=tieSwitch,Length=0.001,Units=km,switch=T !numEQ 20221
new line.CTR176604 bus1=BMT103394503.2,bus2=BMT158879650.2,Phases=1,LineCode=tieSwitch1,Length=0.001,Units=km,switch=T !numEQ 104961
new line.CTR176618 bus1=BMT103387951.2,bus2=BMT103389008.2,Phases=1,LineCode=tieSwitch1,Length=0.001,Units=km,switch=T !numEQ 104964
new line.CTR176660 bus1=BMT103387104.1,bus2=BMT103387118.1,Phases=1,LineCode=tieSwitch1,Length=0.001,Units=km,switch=T !numEQ 104970
new line.CTR11327 bus1=BMT103355856.1,bus2=BMT103355870.1,Phases=1,LineCode=tieSwitch1,Length=0.001,Units=km,switch=T !numEQ 187250
new line.CTR130145 bus1=BMT103356486.1,bus2=BMT103360147.1,Phases=1,LineCode=tieSwitch1,Length=0.001,Units=km,switch=T !numEQ 101857
new line.CTR130173 bus1=BMT103362079.2,bus2=BMT148294873.2,Phases=1,LineCode=tieSwitch1,Length=0.001,Units=km,switch=T !numEQ 101847
new line.CTR130257 bus1=BMT103358922.1,bus2=BMT103359013.1,Phases=1,LineCode=tieSwitch1,Length=0.001,Units=km,switch=T !numEQ 101873
new line.CTR130299 bus1=BMT103341499.1,bus2=BMT103341527.1,Phases=1,LineCode=tieSwitch1,Length=0.001,Units=km,switch=T !numEQ 101871
new line.CTR130509 bus1=BMT103382428.1.2.3,bus2=BMT152695999.1.2.3,Phases=3,LineCode=tieSwitch,Length=0.001,Units=km,switch=T !numEQ 101511
new line.CTR143207 bus1=BMT103368862.1.2.3,bus2=BMT174052458.1.2.3,Phases=3,LineCode=tieSwitch,Length=0.001,Units=km,switch=T !numEQ 21057
new line.CTR144187 bus1=BMT103384472.3,bus2=BMT103384479.3,Phases=1,LineCode=tieSwitch1,Length=0.001,Units=km,switch=T !numEQ 124808
new line.CTR152461 bus1=BMT103387699.3,bus2=BMT103390219.3,Phases=1,LineCode=tieSwitch1,Length=0.001,Units=km,switch=T !numEQ 145158
new line.CTR16409 bus1=BMT103378858.1,bus2=BMT103378956.1,Phases=1,LineCode=tieSwitch1,Length=0.001,Units=km,switch=T !numEQ 22445
new line.CTR16423 bus1=BMT103345223.2,bus2=BMT103345230.2,Phases=1,LineCode=tieSwitch1,Length=0.001,Units=km,switch=T !numEQ 21799
new line.CTR16451 bus1=BMT103345251.2,bus2=BMT103345412.2,Phases=1,LineCode=tieSwitch1,Length=0.001,Units=km,switch=T !numEQ 104925
new line.CTR16493 bus1=BMT103356444.1,bus2=BMT103360210.1,Phases=1,LineCode=tieSwitch1,Length=0.001,Units=km,switch=T !numEQ 101849
new line.CTR17389 bus1=BMT103540579.3,bus2=BMT122147832.3,Phases=1,LineCode=tieSwitch1,Length=0.001,Units=km,switch=T !numEQ 180333
new line.CTR174350 bus1=BMT103406823.1,bus2=BMT103852779.1,Phases=1,LineCode=tieSwitch1,Length=0.001,Units=km,switch=T !numEQ 109731
new line.CTR174371 bus1=BMT103408230.2,bus2=BMT103408258.2,Phases=1,LineCode=tieSwitch1,Length=0.001,Units=km,switch=T !numEQ 109738
new line.CTR174385 bus1=BMT103393880.1,bus2=BMT103393936.1,Phases=1,LineCode=tieSwitch1,Length=0.001,Units=km,switch=T !numEQ 109740
new line.CTR174560 bus1=BMT103407740.2,bus2=BMT103409049.2,Phases=1,LineCode=tieSwitch1,Length=0.001,Units=km,switch=T !numEQ 109791
new line.CTR174889 bus1=BMT103417309.1,bus2=BMT134570788.1,Phases=1,LineCode=tieSwitch1,Length=0.001,Units=km,switch=T !numEQ 21239
new line.CTR174903 bus1=BMT103402651.2,bus2=BMT103403169.2,Phases=1,LineCode=tieSwitch1,Length=0.001,Units=km,switch=T !numEQ 109924
new line.CTR174917 bus1=BMT103387510.1,bus2=BMT103387531.1,Phases=1,LineCode=tieSwitch1,Length=0.001,Units=km,switch=T !numEQ 109926
new line.CTR174945 bus1=BMT103397555.2,bus2=BMT103399214.2,Phases=1,LineCode=tieSwitch1,Length=0.001,Units=km,switch=T !numEQ 109930
new line.CTR174959 bus1=BMT103397681.2,bus2=BMT103397968.2,Phases=1,LineCode=tieSwitch1,Length=0.001,Units=km,switch=T !numEQ 109932
new line.CTR192256 bus1=BMT103541566.2,bus2=BMT103541580.2,Phases=1,LineCode=tieSwitch1,Length=0.001,Units=km,switch=T !numEQ 140725
new line.CTR192648 bus1=BMT103340995.1,bus2=BMT103341009.1,Phases=1,LineCode=tieSwitch1,Length=0.001,Units=km,switch=T !numEQ 144594
new line.CTR19265 bus1=BMT103386614.1.2.3,bus2=BMT103386621.1.2.3,Phases=3,LineCode=tieSwitch,Length=0.001,Units=km,switch=T !numEQ 22401
new line.CTR192662 bus1=BMT103341016.1,bus2=BMT103341030.1,Phases=1,LineCode=tieSwitch1,Length=0.001,Units=km,switch=T !numEQ 144633
new line.CTR192676 bus1=BMT103543967.3,bus2=BMT121403921.3,Phases=1,LineCode=tieSwitch1,Length=0.001,Units=km,switch=T !numEQ 180541
new line.CTR192900 bus1=BMT103363983.3,bus2=BMT103364011.3,Phases=1,LineCode=tieSwitch1,Length=0.001,Units=km,switch=T !numEQ 144220
new line.CTR192914 bus1=BMT103364039.3,bus2=BMT103364067.3,Phases=1,LineCode=tieSwitch1,Length=0.001,Units=km,switch=T !numEQ 144222
new line.CTR1933 bus1=BMT158481247.1.2.3,bus2=BMT174910048.1.2.3,Phases=3,LineCode=tieSwitch,Length=0.001,Units=km,switch=T !numEQ 20425
new line.CTR201461 bus1=BMT103336648.3,bus2=BMT160136662.3,Phases=1,LineCode=tieSwitch1,Length=0.001,Units=km,switch=T !numEQ 144129
new line.CTR20147 bus1=BMT158495554.1,bus2=BMT158495556.1,Phases=1,LineCode=tieSwitch1,Length=0.001,Units=km,switch=T !numEQ 23190
new line.CTR20189 bus1=BMT103539858.1.2.3,bus2=BMT153480238.1.2.3,Phases=3,LineCode=tieSwitch,Length=0.001,Units=km,switch=T !numEQ 186938
new line.CTR201951 bus1=BMT161338582.1.2.3,bus2=BMT171043814.1.2.3,Phases=3,LineCode=tieSwitch,Length=0.001,Units=km,switch=T !numEQ 81605
new line.CTR202007 bus1=BMT106449877.1.2.3,bus2=BMT157658072.1.2.3,Phases=3,LineCode=tieSwitch,Length=0.001,Units=km,switch=T !numEQ 23417
new line.CTR202133 bus1=BMT103386628.3,bus2=BMT167921203.3,Phases=1,LineCode=tieSwitch1,Length=0.001,Units=km,switch=T !numEQ 193678
new line.CTR202168 bus1=BMT103365705.2,bus2=BMT103365775.2,Phases=1,LineCode=tieSwitch1,Length=0.001,Units=km,switch=T !numEQ 189729
new line.CTR20217 bus1=BMT103539872.1,bus2=BMT103540341.1,Phases=1,LineCode=tieSwitch1,Length=0.001,Units=km,switch=T !numEQ 20269
new line.CTR202882 bus1=BMT103334702.1,bus2=BMT167139407.1,Phases=1,LineCode=tieSwitch1,Length=0.001,Units=km,switch=T !numEQ 187247
new line.CTR202896 bus1=BMT103360756.1,bus2=BMT170425668.1,Phases=1,LineCode=tieSwitch1,Length=0.001,Units=km,switch=T !numEQ 187248
new line.CTR202910 bus1=BMT99312733.3,bus2=BMT159645848.3,Phases=1,LineCode=tieSwitch1,Length=0.001,Units=km,switch=T !numEQ 187249
new line.CTR202924 bus1=BMT170191130.1.2.3,bus2=BMT7165314.1.2.3,Phases=3,LineCode=tieSwitch,Length=0.001,Units=km,switch=T !numEQ 186950
open line.CTR202924 term=1
new line.CTR203001 bus1=BMT103542014.1,bus2=BMT109437757.1,Phases=1,LineCode=tieSwitch1,Length=0.001,Units=km,switch=T !numEQ 166768
new line.CTR203064 bus1=BMT103346112.2,bus2=BMT103346154.2,Phases=1,LineCode=tieSwitch1,Length=0.001,Units=km,switch=T !numEQ 101859
new line.CTR203211 bus1=BMT103542119.1,bus2=BMT103542182.1,Phases=1,LineCode=tieSwitch1,Length=0.001,Units=km,switch=T !numEQ 166769
new line.CTR203225 bus1=BMT103346462.2,bus2=BMT103346476.2,Phases=1,LineCode=tieSwitch1,Length=0.001,Units=km,switch=T !numEQ 104937
new line.CTR203365 bus1=BMT103346826.1,bus2=BMT103366286.1,Phases=1,LineCode=tieSwitch1,Length=0.001,Units=km,switch=T !numEQ 21681
new line.CTR10207 bus1=BMT103363801.3,bus2=BMT103365348.3,Phases=1,LineCode=tieSwitch1,Length=0.001,Units=km,switch=T !numEQ 144223
new line.CTR10235 bus1=BMT103364025.3,bus2=BMT103364081.3,Phases=1,LineCode=tieSwitch1,Length=0.001,Units=km,switch=T !numEQ 144221
new line.CTR132133 bus1=BMT103342122.1,bus2=BMT136474676.1,Phases=1,LineCode=tieSwitch1,Length=0.001,Units=km,switch=T !numEQ 104894
new line.CTR132161 bus1=BMT103342269.1,bus2=BMT156266306.1,Phases=1,LineCode=tieSwitch1,Length=0.001,Units=km,switch=T !numEQ 104895
new line.CTR132217 bus1=BMT103380153.1,bus2=BMT171024257.1,Phases=1,LineCode=tieSwitch1,Length=0.001,Units=km,switch=T !numEQ 104899
new line.CTR132245 bus1=BMT103342948.1,bus2=BMT136474235.1,Phases=1,LineCode=tieSwitch1,Length=0.001,Units=km,switch=T !numEQ 104901
new line.CTR132273 bus1=BMT103342871.1,bus2=BMT136474438.1,Phases=1,LineCode=tieSwitch1,Length=0.001,Units=km,switch=T !numEQ 104903
new line.CTR13245 bus1=BMT103330173.2,bus2=BMT103330600.2,Phases=1,LineCode=tieSwitch1,Length=0.001,Units=km,switch=T !numEQ 166315
new line.CTR13273 bus1=BMT103330852.2,bus2=BMT103330887.2,Phases=1,LineCode=tieSwitch1,Length=0.001,Units=km,switch=T !numEQ 167414
new line.CTR13301 bus1=BMT103330117.2,bus2=BMT103331055.2,Phases=1,LineCode=tieSwitch1,Length=0.001,Units=km,switch=T !numEQ 166313
new line.CTR133022 bus1=BMT103367707.1.2.3,bus2=BMT161080443.1.2.3,Phases=3,LineCode=tieSwitch,Length=0.001,Units=km,switch=T !numEQ 104239
new line.CTR138391 bus1=BMT103417561.1,bus2=BMT103417673.1,Phases=1,LineCode=tieSwitch1,Length=0.001,Units=km,switch=T !numEQ 110614
new line.CTR138615 bus1=BMT103400012.2,bus2=BMT164480038.2,Phases=1,LineCode=tieSwitch1,Length=0.001,Units=km,switch=T !numEQ 110474
new line.CTR138643 bus1=BMT172466977.1.2.3,bus2=BMT172466978.1.2.3,Phases=3,LineCode=tieSwitch,Length=0.001,Units=km,switch=T !numEQ 110486
new line.CTR155835 bus1=BMT103329585.2,bus2=BMT103331664.2,Phases=1,LineCode=tieSwitch1,Length=0.001,Units=km,switch=T !numEQ 136392
new line.CTR155905 bus1=BMT103346357.1.2.3,bus2=BMT14862864.1.2.3,Phases=3,LineCode=tieSwitch,Length=0.001,Units=km,switch=T !numEQ 136444
open line.CTR155905 term=1
new line.CTR156031 bus1=BMT103346294.1.2.3,bus2=BMT103346308.1.2.3,Phases=3,LineCode=tieSwitch,Length=0.001,Units=km,switch=T !numEQ 136442
new line.CTR160637 bus1=BMT155858608.1.2.3,bus2=BMT173494593.1.2.3,Phases=3,LineCode=tieSwitch,Length=0.001,Units=km,switch=T !numEQ 131081
new line.CTR161253 bus1=BMT158495306.1.2.3,bus2=BMT158495309.1.2.3,Phases=3,LineCode=tieSwitch,Length=0.001,Units=km,switch=T !numEQ 127843
new line.CTR170353 bus1=BMT103534370.1,bus2=BMT103536792.1,Phases=1,LineCode=tieSwitch1,Length=0.001,Units=km,switch=T !numEQ 133355
new line.CTR17095 bus1=BMT103377990.1,bus2=BMT164072754.1,Phases=1,LineCode=tieSwitch1,Length=0.001,Units=km,switch=T !numEQ 165797
new line.CTR17123 bus1=BMT103378018.1,bus2=BMT103378074.1,Phases=1,LineCode=tieSwitch1,Length=0.001,Units=km,switch=T !numEQ 165798
new line.CTR178361 bus1=BMT103347008.2,bus2=BMT103365628.2,Phases=1,LineCode=tieSwitch1,Length=0.001,Units=km,switch=T !numEQ 105000
new line.CTR178683 bus1=BMT103341898.2,bus2=BMT103346028.2,Phases=1,LineCode=tieSwitch1,Length=0.001,Units=km,switch=T !numEQ 104904
new line.CTR18327 bus1=BMT103539578.2,bus2=BMT103543050.2,Phases=1,LineCode=tieSwitch1,Length=0.001,Units=km,switch=T !numEQ 109943
new line.CTR194223 bus1=BMT103389680.2,bus2=BMT103389694.2,Phases=1,LineCode=tieSwitch1,Length=0.001,Units=km,switch=T !numEQ 144590
new line.CTR194279 bus1=BMT103388413.2,bus2=BMT103388560.2,Phases=1,LineCode=tieSwitch1,Length=0.001,Units=km,switch=T !numEQ 166469
new line.CTR194328 bus1=BMT103388399.2,bus2=BMT103388588.2,Phases=1,LineCode=tieSwitch1,Length=0.001,Units=km,switch=T !numEQ 166470
new line.CTR194342 bus1=BMT103388378.2,bus2=BMT103388616.2,Phases=1,LineCode=tieSwitch1,Length=0.001,Units=km,switch=T !numEQ 166468
new line.CTR194468 bus1=BMT154670897.2,bus2=BMT173994918.2,Phases=1,LineCode=tieSwitch1,Length=0.001,Units=km,switch=T !numEQ 144846
new line.CTR194482 bus1=BMT103344110.3,bus2=BMT136485792.3,Phases=1,LineCode=tieSwitch1,Length=0.001,Units=km,switch=T !numEQ 167411
new line.CTR194622 bus1=BMT103358299.1,bus2=BMT103358320.1,Phases=1,LineCode=tieSwitch1,Length=0.001,Units=km,switch=T !numEQ 167388
new line.CTR197492 bus1=BMT103330026.2,bus2=BMT103331188.2,Phases=1,LineCode=tieSwitch1,Length=0.001,Units=km,switch=T !numEQ 166316
new line.CTR197772 bus1=BMT103357424.1,bus2=BMT103357592.1,Phases=1,LineCode=tieSwitch1,Length=0.001,Units=km,switch=T !numEQ 164626
new line.CTR197786 bus1=BMT103388896.1,bus2=BMT103388903.1,Phases=1,LineCode=tieSwitch1,Length=0.001,Units=km,switch=T !numEQ 143490
new line.CTR198493 bus1=BMT103356759.1,bus2=BMT122846929.1,Phases=1,LineCode=tieSwitch1,Length=0.001,Units=km,switch=T !numEQ 22007
new line.CTR198927 bus1=BMT103343816.3,bus2=BMT175849288.3,Phases=1,LineCode=tieSwitch1,Length=0.001,Units=km,switch=T !numEQ 104919
new line.CTR198955 bus1=BMT103343802.3,bus2=BMT136484966.3,Phases=1,LineCode=tieSwitch1,Length=0.001,Units=km,switch=T !numEQ 21291
new line.CTR199004 bus1=BMT103344047.3,bus2=BMT136485890.3,Phases=1,LineCode=tieSwitch1,Length=0.001,Units=km,switch=T !numEQ 164997
new line.CTR20693 bus1=BMT103346896.1,bus2=BMT103366174.1,Phases=1,LineCode=tieSwitch1,Length=0.001,Units=km,switch=T !numEQ 165372
new line.CTR206984 bus1=BMT103361085.1,bus2=BMT169710268.1,Phases=1,LineCode=tieSwitch1,Length=0.001,Units=km,switch=T !numEQ 165861
new line.CTR206998 bus1=BMT103360847.1,bus2=BMT103361001.1,Phases=1,LineCode=tieSwitch1,Length=0.001,Units=km,switch=T !numEQ 165862
new line.CTR207096 bus1=BMT103360840.1,bus2=BMT103361022.1,Phases=1,LineCode=tieSwitch1,Length=0.001,Units=km,switch=T !numEQ 165863
new line.CTR20721 bus1=BMT103346910.3,bus2=BMT157301101.3,Phases=1,LineCode=tieSwitch1,Length=0.001,Units=km,switch=T !numEQ 164043
new line.CTR207418 bus1=BMT103405493.3,bus2=BMT169991001.3,Phases=1,LineCode=tieSwitch1,Length=0.001,Units=km,switch=T !numEQ 180054
new line.CTR20749 bus1=BMT103542602.1,bus2=BMT103542826.1,Phases=1,LineCode=tieSwitch1,Length=0.001,Units=km,switch=T !numEQ 166467
new line.CTR20763 bus1=BMT103366230.1,bus2=BMT155564192.1,Phases=1,LineCode=tieSwitch1,Length=0.001,Units=km,switch=T !numEQ 163820
new line.CTR209098 bus1=BMT103383093.2,bus2=BMT175463292.2,Phases=1,LineCode=tieSwitch1,Length=0.001,Units=km,switch=T !numEQ 22472
new line.CTR16325 bus1=BMT160910932.1.2.3,bus2=BMT162479177.1.2.3,Phases=3,LineCode=tieSwitch,Length=0.001,Units=km,switch=T !numEQ 21959
new line.CTR16353 bus1=BMT103379411.1,bus2=BMT103379425.1,Phases=1,LineCode=tieSwitch1,Length=0.001,Units=km,switch=T !numEQ 113160
new line.CTR169429 bus1=BMT103391626.1,bus2=BMT103391633.1,Phases=1,LineCode=tieSwitch1,Length=0.001,Units=km,switch=T !numEQ 113224
new line.CTR172481 bus1=BMT103342248.1,bus2=BMT136473612.1,Phases=1,LineCode=tieSwitch1,Length=0.001,Units=km,switch=T !numEQ 22169
new line.CTR172509 bus1=BMT103417057.1,bus2=BMT103417099.1,Phases=1,LineCode=tieSwitch1,Length=0.001,Units=km,switch=T !numEQ 143581
new line.CTR172537 bus1=BMT103417050.1,bus2=BMT169702520.1,Phases=1,LineCode=tieSwitch1,Length=0.001,Units=km,switch=T !numEQ 143580
new line.CTR172586 bus1=BMT103391395.1,bus2=BMT103392165.1,Phases=1,LineCode=tieSwitch1,Length=0.001,Units=km,switch=T !numEQ 51518
new line.CTR172733 bus1=BMT103371102.3,bus2=BMT103371116.3,Phases=1,LineCode=tieSwitch1,Length=0.001,Units=km,switch=T !numEQ 165291
new line.CTR172803 bus1=BMT103405864.3,bus2=BMT103405899.3,Phases=1,LineCode=tieSwitch1,Length=0.001,Units=km,switch=T !numEQ 140264
new line.CTR172817 bus1=BMT103405920.3,bus2=BMT103405948.3,Phases=1,LineCode=tieSwitch1,Length=0.001,Units=km,switch=T !numEQ 140265
new line.CTR172971 bus1=BMT103405325.3,bus2=BMT103405633.3,Phases=1,LineCode=tieSwitch1,Length=0.001,Units=km,switch=T !numEQ 110463
new line.CTR172999 bus1=BMT103417708.1,bus2=BMT103417722.1,Phases=1,LineCode=tieSwitch1,Length=0.001,Units=km,switch=T !numEQ 110496
new line.CTR173062 bus1=BMT103337880.3,bus2=BMT103337901.3,Phases=1,LineCode=tieSwitch1,Length=0.001,Units=km,switch=T !numEQ 110504
new line.CTR179019 bus1=BMT103385984.1.2.3,bus2=BMT150567177.1.2.3,Phases=3,LineCode=tieSwitch,Length=0.001,Units=km,switch=T !numEQ 102312
new line.CTR186222 bus1=BMT170948447.1.2.3,bus2=BMT170948448.1.2.3,Phases=3,LineCode=tieSwitch,Length=0.001,Units=km,switch=T !numEQ 96099
new line.CTR1905 bus1=BMT158481064.1.2.3,bus2=BMT170191124.1.2.3,Phases=3,LineCode=tieSwitch,Length=0.001,Units=km,switch=T !numEQ 133175
new line.CTR190597 bus1=BMT103316061.1.2.3,bus2=BMT148437830.1.2.3,Phases=3,LineCode=tieSwitch,Length=0.001,Units=km,switch=T !numEQ 184515
new line.CTR190814 bus1=BMT103369933.3,bus2=BMT103369989.3,Phases=1,LineCode=tieSwitch1,Length=0.001,Units=km,switch=T !numEQ 147013
new line.CTR190856 bus1=BMT103329466.3,bus2=BMT103332462.3,Phases=1,LineCode=tieSwitch1,Length=0.001,Units=km,switch=T !numEQ 145120
new line.CTR191129 bus1=BMT103405871.3,bus2=BMT103405885.3,Phases=1,LineCode=tieSwitch1,Length=0.001,Units=km,switch=T !numEQ 163903
new line.CTR191528 bus1=BMT103366951.3,bus2=BMT157377210.3,Phases=1,LineCode=tieSwitch1,Length=0.001,Units=km,switch=T !numEQ 164382
new line.CTR191556 bus1=BMT103346868.3,bus2=BMT103366258.3,Phases=1,LineCode=tieSwitch1,Length=0.001,Units=km,switch=T !numEQ 167650
new line.CTR191598 bus1=BMT103414439.3,bus2=BMT154035801.3,Phases=1,LineCode=tieSwitch1,Length=0.001,Units=km,switch=T !numEQ 146980
new line.CTR191612 bus1=BMT103414495.3,bus2=BMT154035825.3,Phases=1,LineCode=tieSwitch1,Length=0.001,Units=km,switch=T !numEQ 164400
new line.CTR191787 bus1=BMT103377185.1,bus2=BMT103377220.1,Phases=1,LineCode=tieSwitch1,Length=0.001,Units=km,switch=T !numEQ 164318
new line.CTR191801 bus1=BMT103377234.1,bus2=BMT103377297.1,Phases=1,LineCode=tieSwitch1,Length=0.001,Units=km,switch=T !numEQ 164320
new line.CTR191815 bus1=BMT103377255.1,bus2=BMT103377283.1,Phases=1,LineCode=tieSwitch1,Length=0.001,Units=km,switch=T !numEQ 164319
new line.CTR191829 bus1=BMT103376422.1,bus2=BMT103376443.1,Phases=1,LineCode=tieSwitch1,Length=0.001,Units=km,switch=T !numEQ 164321
new line.CTR191990 bus1=BMT103413424.3,bus2=BMT154035961.3,Phases=1,LineCode=tieSwitch1,Length=0.001,Units=km,switch=T !numEQ 166501
new line.CTR192123 bus1=BMT103330915.2,bus2=BMT103330936.2,Phases=1,LineCode=tieSwitch1,Length=0.001,Units=km,switch=T !numEQ 166312
new line.CTR196449 bus1=BMT103419157.1,bus2=BMT103419178.1,Phases=1,LineCode=tieSwitch1,Length=0.001,Units=km,switch=T !numEQ 185027
new line.CTR196477 bus1=BMT99312705.3,bus2=BMT148035372.3,Phases=1,LineCode=tieSwitch1,Length=0.001,Units=km,switch=T !numEQ 23275
new line.CTR196498 bus1=BMT166892647.3,bus2=BMT148035180.3,Phases=1,LineCode=tieSwitch1,Length=0.001,Units=km,switch=T !numEQ 21259
open line.CTR196498 term=1
new line.CTR196729 bus1=BMT103336620.3,bus2=BMT160136654.3,Phases=1,LineCode=tieSwitch1,Length=0.001,Units=km,switch=T !numEQ 166314
new line.CTR204471 bus1=BMT103374637.3,bus2=BMT117335780.3,Phases=1,LineCode=tieSwitch1,Length=0.001,Units=km,switch=T !numEQ 163932
new line.CTR204569 bus1=BMT103397079.3,bus2=BMT103397135.3,Phases=1,LineCode=tieSwitch1,Length=0.001,Units=km,switch=T !numEQ 163892
new line.CTR204583 bus1=BMT103397142.3,bus2=BMT103397177.3,Phases=1,LineCode=tieSwitch1,Length=0.001,Units=km,switch=T !numEQ 163893
new line.CTR204611 bus1=BMT103403092.2,bus2=BMT103403113.2,Phases=1,LineCode=tieSwitch1,Length=0.001,Units=km,switch=T !numEQ 163813
new line.CTR204849 bus1=BMT136479296.2,bus2=BMT136479373.2,Phases=1,LineCode=tieSwitch1,Length=0.001,Units=km,switch=T !numEQ 167537
new line.CTR204877 bus1=BMT103385578.1,bus2=BMT165472796.1,Phases=1,LineCode=tieSwitch1,Length=0.001,Units=km,switch=T !numEQ 23530
new line.CTR205150 bus1=BMT103326106.1.2.3,bus2=BMT103327079.1.2.3,Phases=3,LineCode=tieSwitch,Length=0.001,Units=km,switch=T !numEQ 147150
new line.CTR205234 bus1=BMT103413921.3,bus2=BMT154035739.3,Phases=1,LineCode=tieSwitch1,Length=0.001,Units=km,switch=T !numEQ 21021
new line.CTR205304 bus1=BMT150872915.1.2.3,bus2=BMT166546584.1.2.3,Phases=3,LineCode=tieSwitch,Length=0.001,Units=km,switch=T !numEQ 163793
new line.CTR205493 bus1=BMT103326820.3,bus2=BMT103326932.3,Phases=1,LineCode=tieSwitch1,Length=0.001,Units=km,switch=T !numEQ 138884
new line.CTR205766 bus1=BMT103327562.1,bus2=BMT152082216.1,Phases=1,LineCode=tieSwitch1,Length=0.001,Units=km,switch=T !numEQ 22581
new line.CTR2143 bus1=BMT103349451.1,bus2=BMT172270003.1,Phases=1,LineCode=tieSwitch1,Length=0.001,Units=km,switch=T !numEQ 197630
new line.CTR215118 bus1=BMT103414040.3,bus2=BMT155956378.3,Phases=1,LineCode=tieSwitch1,Length=0.001,Units=km,switch=T !numEQ 140494
new line.CTR226829 bus1=BMT103401797.3,bus2=BMT165928020.3,Phases=1,LineCode=tieSwitch1,Length=0.001,Units=km,switch=T !numEQ 202452
new line.CTR203407 bus1=BMT103543561.2,bus2=BMT122168041.2,Phases=1,LineCode=tieSwitch1,Length=0.001,Units=km,switch=T !numEQ 166296
new line.CTR212143 bus1=BMT103403918.1,bus2=BMT103403981.1,Phases=1,LineCode=tieSwitch1,Length=0.001,Units=km,switch=T !numEQ 205151
new line.CTR212640 bus1=BMT103402021.3,bus2=BMT103402112.3,Phases=1,LineCode=tieSwitch1,Length=0.001,Units=km,switch=T !numEQ 163902
new line.CTR224911 bus1=BMT103336354.3,bus2=BMT160136656.3,Phases=1,LineCode=tieSwitch1,Length=0.001,Units=km,switch=T !numEQ 144128
new line.CTR23479 bus1=BMT170067575.3,bus2=BMT170067616.3,Phases=1,LineCode=tieSwitch1,Length=0.001,Units=km,switch=T !numEQ 142145
new line.CTR235208 bus1=BMT103331643.1.2.3,bus2=BMT103331650.1.2.3,Phases=3,LineCode=tieSwitch,Length=0.001,Units=km,switch=T !numEQ 181037
new line.CTR251035 bus1=BMT127233920.2,bus2=BMT166382859.2,Phases=1,LineCode=tieSwitch1,Length=0.001,Units=km,switch=T !numEQ 104977
new line.CTR251056 bus1=BMT103333771.1.2.3,bus2=BMT103338853.1.2.3,Phases=3,LineCode=tieSwitch,Length=0.001,Units=km,switch=T !numEQ 186833
new line.CTR258819 bus1=BMT103395630.1,bus2=BMT103396386.1,Phases=1,LineCode=tieSwitch1,Length=0.001,Units=km,switch=T !numEQ 22894
new line.CTR258875 bus1=BMT103374175.1.2.3,bus2=BMT117369576.1.2.3,Phases=3,LineCode=tieSwitch,Length=0.001,Units=km,switch=T !numEQ 22901
new line.CTR258889 bus1=BMT103362352.2,bus2=BMT148294811.2,Phases=1,LineCode=tieSwitch1,Length=0.001,Units=km,switch=T !numEQ 22903
new line.CTR258903 bus1=BMT103362345.2,bus2=BMT148294813.2,Phases=1,LineCode=tieSwitch1,Length=0.001,Units=km,switch=T !numEQ 22904
new line.CTR258945 bus1=BMT103535763.3,bus2=BMT158930641.3,Phases=1,LineCode=tieSwitch1,Length=0.001,Units=km,switch=T !numEQ 22911
new line.CTR258959 bus1=BMT103542007.1,bus2=BMT103542196.1,Phases=1,LineCode=tieSwitch1,Length=0.001,Units=km,switch=T !numEQ 22833
new line.CTR259099 bus1=BMT158962491.1.2.3,bus2=BMT158962394.1.2.3,Phases=3,LineCode=tieSwitch,Length=0.001,Units=km,switch=T !numEQ 22786
new line.CTR259253 bus1=BMT103534566.1,bus2=BMT167896162.1,Phases=1,LineCode=tieSwitch1,Length=0.001,Units=km,switch=T !numEQ 22744
new line.CTR259295 bus1=BMT103339959.1.2.3,bus2=BMT136522150.1.2.3,Phases=3,LineCode=tieSwitch,Length=0.001,Units=km,switch=T !numEQ 22772
new line.CTR259337 bus1=BMT151340658.1.2.3,bus2=BMT3569771.1.2.3,Phases=3,LineCode=tieSwitch,Length=0.001,Units=km,switch=T !numEQ 22780
new line.CTR259575 bus1=BMT103391157.1,bus2=BMT155234878.1,Phases=1,LineCode=tieSwitch1,Length=0.001,Units=km,switch=T !numEQ 22623
new line.CTR259701 bus1=BMT103404114.3,bus2=BMT103409658.3,Phases=1,LineCode=tieSwitch1,Length=0.001,Units=km,switch=T !numEQ 22584
new line.CTR259757 bus1=BMT103538864.3,bus2=BMT153480144.3,Phases=1,LineCode=tieSwitch1,Length=0.001,Units=km,switch=T !numEQ 22614
new line.CTR259848 bus1=BMT103400817.2,bus2=BMT103400831.2,Phases=1,LineCode=tieSwitch1,Length=0.001,Units=km,switch=T !numEQ 22540
new line.CTR259897 bus1=BMT103326197.2,bus2=BMT103326603.2,Phases=1,LineCode=tieSwitch1,Length=0.001,Units=km,switch=T !numEQ 22492
new line.CTR260030 bus1=BMT136476125.1.2.3,bus2=BMT163369574.1.2.3,Phases=3,LineCode=tieSwitch,Length=0.001,Units=km,switch=T !numEQ 22497
new line.CTR260044 bus1=BMT103399529.2,bus2=BMT103399543.2,Phases=1,LineCode=tieSwitch1,Length=0.001,Units=km,switch=T !numEQ 22525
new line.CTR260135 bus1=BMT103325994.1.2.3,bus2=BMT103326148.1.2.3,Phases=3,LineCode=tieSwitch,Length=0.001,Units=km,switch=T !numEQ 22505
new line.CTR260254 bus1=BMT103397464.2,bus2=BMT103399459.2,Phases=1,LineCode=tieSwitch1,Length=0.001,Units=km,switch=T !numEQ 213176
new line.CTR260275 bus1=BMT103397387.2,bus2=BMT103400621.2,Phases=1,LineCode=tieSwitch1,Length=0.001,Units=km,switch=T !numEQ 22457
new line.CTR260289 bus1=BMT103386747.1.2.3,bus2=BMT175093097.1.2.3,Phases=3,LineCode=tieSwitch,Length=0.001,Units=km,switch=T !numEQ 22403
new line.CTR260317 bus1=BMT103329578.3,bus2=BMT103331692.3,Phases=1,LineCode=tieSwitch1,Length=0.001,Units=km,switch=T !numEQ 22407
new line.CTR260345 bus1=BMT103329606.1.2.3,bus2=BMT103329613.1.2.3,Phases=3,LineCode=tieSwitch,Length=0.001,Units=km,switch=T !numEQ 22349
new line.CTR260394 bus1=BMT103343760.2,bus2=BMT103345104.2,Phases=1,LineCode=tieSwitch1,Length=0.001,Units=km,switch=T !numEQ 22358
new line.CTR260464 bus1=BMT103538794.1.2.3,bus2=BMT162891831.1.2.3,Phases=3,LineCode=tieSwitch,Length=0.001,Units=km,switch=T !numEQ 22366
new line.CTR260492 bus1=BMT103354946.1.2.3,bus2=BMT109404626.1.2.3,Phases=3,LineCode=tieSwitch,Length=0.001,Units=km,switch=T !numEQ 293808
new line.CTR260751 bus1=BMT158221935.3,bus2=BMT159313966.3,Phases=1,LineCode=tieSwitch1,Length=0.001,Units=km,switch=T !numEQ 22284
new line.CTR260765 bus1=BMT158481058.1.2.3,bus2=BMT158481361.1.2.3,Phases=3,LineCode=tieSwitch,Length=0.001,Units=km,switch=T !numEQ 22286
new line.CTR260779 bus1=BMT169235935.1,bus2=BMT103342262.1,Phases=1,LineCode=tieSwitch1,Length=0.001,Units=km,switch=T !numEQ 22288
open line.CTR260779 term=1
new line.CTR260947 bus1=BMT103329389.1.2.3,bus2=BMT164549473.1.2.3,Phases=3,LineCode=tieSwitch,Length=0.001,Units=km,switch=T !numEQ 22181
new line.CTR260989 bus1=BMT103339574.1.2.3,bus2=BMT159493294.1.2.3,Phases=3,LineCode=tieSwitch,Length=0.001,Units=km,switch=T !numEQ 22190
new line.CTR261010 bus1=BMT161138776.1.2.3,bus2=BMT2773528.1.2.3,Phases=3,LineCode=tieSwitch,Length=0.001,Units=km,switch=T !numEQ 22193
open line.CTR261010 term=1
new line.CTR261101 bus1=BMT103382715.2,bus2=BMT103383128.2,Phases=1,LineCode=tieSwitch1,Length=0.001,Units=km,switch=T !numEQ 22139
new line.CTR261367 bus1=BMT158481005.1.2.3,bus2=BMT158480954.1.2.3,Phases=3,LineCode=tieSwitch,Length=0.001,Units=km,switch=T !numEQ 22117
open line.CTR261367 term=1
new line.CTR261381 bus1=BMT158495512.1.2.3,bus2=BMT158495532.1.2.3,Phases=3,LineCode=tieSwitch,Length=0.001,Units=km,switch=T !numEQ 22119
new line.CTR261402 bus1=BMT161410492.1.2.3,bus2=BMT151825661.1.2.3,Phases=3,LineCode=tieSwitch,Length=0.001,Units=km,switch=T !numEQ 22060
open line.CTR261402 term=1
new line.CTR261507 bus1=BMT99312726.3,bus2=BMT166892658.3,Phases=1,LineCode=tieSwitch1,Length=0.001,Units=km,switch=T !numEQ 22073
new line.CTR261521 bus1=BMT103347197.1,bus2=BMT103363171.1,Phases=1,LineCode=tieSwitch1,Length=0.001,Units=km,switch=T !numEQ 22074
new line.CTR261549 bus1=BMT158481046.1.2.3,bus2=BMT172762156.1.2.3,Phases=3,LineCode=tieSwitch,Length=0.001,Units=km,switch=T !numEQ 22078
new line.CTR228129 bus1=BMT170333749.1,bus2=BMT170345045.1,Phases=1,LineCode=tieSwitch1,Length=0.001,Units=km,switch=T !numEQ 25919
new line.CTR228264 bus1=BMT103373895.2,bus2=BMT103373916.2,Phases=1,LineCode=tieSwitch1,Length=0.001,Units=km,switch=T !numEQ 147005
new line.CTR247031 bus1=BMT103407810.2,bus2=BMT103407824.2,Phases=1,LineCode=tieSwitch1,Length=0.001,Units=km,switch=T !numEQ 21730
new line.CTR247451 bus1=BMT103315900.1.2.3,bus2=BMT103315907.1.2.3,Phases=3,LineCode=tieSwitch,Length=0.001,Units=km,switch=T !numEQ 186804
new line.CTR248900 bus1=BMT103342983.1,bus2=BMT136474193.1,Phases=1,LineCode=tieSwitch1,Length=0.001,Units=km,switch=T !numEQ 144219
new line.CTR248914 bus1=BMT103349255.1,bus2=BMT161384242.1,Phases=1,LineCode=tieSwitch1,Length=0.001,Units=km,switch=T !numEQ 51880
new line.CTR256341 bus1=BMT103391976.1,bus2=BMT166878330.1,Phases=1,LineCode=tieSwitch1,Length=0.001,Units=km,switch=T !numEQ 23793
new line.CTR256502 bus1=BMT103391843.1,bus2=BMT103391885.1,Phases=1,LineCode=tieSwitch1,Length=0.001,Units=km,switch=T !numEQ 23753
new line.CTR256614 bus1=BMT103412444.1,bus2=BMT103412570.1,Phases=1,LineCode=tieSwitch1,Length=0.001,Units=km,switch=T !numEQ 23706
new line.CTR256684 bus1=BMT103339938.1.2.3,bus2=BMT175353632.1.2.3,Phases=3,LineCode=tieSwitch,Length=0.001,Units=km,switch=T !numEQ 23735
new line.CTR256845 bus1=BMT103405178.3,bus2=BMT166886473.3,Phases=1,LineCode=tieSwitch1,Length=0.001,Units=km,switch=T !numEQ 23698
new line.CTR256866 bus1=BMT103361890.2,bus2=BMT172239223.2,Phases=1,LineCode=tieSwitch1,Length=0.001,Units=km,switch=T !numEQ 105033
new line.CTR256880 bus1=BMT103411429.1,bus2=BMT103412080.1,Phases=1,LineCode=tieSwitch1,Length=0.001,Units=km,switch=T !numEQ 23704
new line.CTR256957 bus1=BMT103385480.1.2.3,bus2=BMT169487023.1.2.3,Phases=3,LineCode=tieSwitch,Length=0.001,Units=km,switch=T !numEQ 22596
new line.CTR256985 bus1=BMT103347491.1.2.3,bus2=BMT103347498.1.2.3,Phases=3,LineCode=tieSwitch,Length=0.001,Units=km,switch=T !numEQ 23660
new line.CTR257013 bus1=BMT158495446.1.2.3,bus2=BMT158495447.1.2.3,Phases=3,LineCode=tieSwitch,Length=0.001,Units=km,switch=T !numEQ 23582
open line.CTR257013 term=1
new line.CTR257132 bus1=BMT103318539.1.2.3,bus2=BMT151124045.1.2.3,Phases=3,LineCode=tieSwitch,Length=0.001,Units=km,switch=T !numEQ 23621
new line.CTR257237 bus1=BMT164101027.1.2.3,bus2=BMT158481212.1.2.3,Phases=3,LineCode=tieSwitch,Length=0.001,Units=km,switch=T !numEQ 23540
new line.CTR257293 bus1=BMT103328955.1.2.3,bus2=BMT175041863.1.2.3,Phases=3,LineCode=tieSwitch,Length=0.001,Units=km,switch=T !numEQ 297760
new line.CTR257307 bus1=BMT103339196.1.2.3,bus2=BMT166768233.1.2.3,Phases=3,LineCode=tieSwitch,Length=0.001,Units=km,switch=T !numEQ 23413
new line.CTR257342 bus1=BMT103351614.2,bus2=BMT139107152.2,Phases=1,LineCode=tieSwitch1,Length=0.001,Units=km,switch=T !numEQ 23418
new line.CTR257356 bus1=BMT103359335.1,bus2=BMT155870686.1,Phases=1,LineCode=tieSwitch1,Length=0.001,Units=km,switch=T !numEQ 23420
new line.CTR257552 bus1=BMT103410197.1.2.3,bus2=BMT153841728.1.2.3,Phases=3,LineCode=tieSwitch,Length=0.001,Units=km,switch=T !numEQ 23300
new line.CTR257566 bus1=BMT152883456.1.2.3,bus2=BMT2773269.1.2.3,Phases=3,LineCode=tieSwitch,Length=0.001,Units=km,switch=T !numEQ 23303
open line.CTR257566 term=1
new line.CTR257594 bus1=BMT103539018.2,bus2=BMT103539046.2,Phases=1,LineCode=tieSwitch1,Length=0.001,Units=km,switch=T !numEQ 23241
new line.CTR257650 bus1=BMT158481120.1.2.3,bus2=BMT158481122.1.2.3,Phases=3,LineCode=tieSwitch,Length=0.001,Units=km,switch=T !numEQ 23251
new line.CTR257748 bus1=BMT103316789.1.2.3,bus2=BMT150825970.1.2.3,Phases=3,LineCode=tieSwitch,Length=0.001,Units=km,switch=T !numEQ 23199
new line.CTR257776 bus1=BMT103347176.1.2.3,bus2=BMT175648484.1.2.3,Phases=3,LineCode=tieSwitch,Length=0.001,Units=km,switch=T !numEQ 23270
new line.CTR257790 bus1=BMT103394300.2,bus2=BMT153353654.2,Phases=1,LineCode=tieSwitch1,Length=0.001,Units=km,switch=T !numEQ 164918
new line.CTR257804 bus1=BMT103315809.1.2.3,bus2=BMT170948445.1.2.3,Phases=3,LineCode=tieSwitch,Length=0.001,Units=km,switch=T !numEQ 23206
new line.CTR257860 bus1=BMT103362233.2,bus2=BMT148294836.2,Phases=1,LineCode=tieSwitch1,Length=0.001,Units=km,switch=T !numEQ 23216
new line.CTR257888 bus1=BMT103341135.3,bus2=BMT103341205.3,Phases=1,LineCode=tieSwitch1,Length=0.001,Units=km,switch=T !numEQ 23221
new line.CTR257916 bus1=BMT103347155.1.2.3,bus2=BMT103347162.1.2.3,Phases=3,LineCode=tieSwitch,Length=0.001,Units=km,switch=T !numEQ 23222
new line.CTR258021 bus1=BMT103533642.1.2.3,bus2=BMT160748082.1.2.3,Phases=3,LineCode=tieSwitch,Length=0.001,Units=km,switch=T !numEQ 23178
new line.CTR258049 bus1=BMT103389456.2,bus2=BMT103389540.2,Phases=1,LineCode=tieSwitch1,Length=0.001,Units=km,switch=T !numEQ 23168
new line.CTR258084 bus1=BMT103382582.3,bus2=BMT170769454.3,Phases=1,LineCode=tieSwitch1,Length=0.001,Units=km,switch=T !numEQ 23115
new line.CTR258357 bus1=BMT103340631.1.2.3,bus2=BMT148931760.1.2.3,Phases=3,LineCode=tieSwitch,Length=0.001,Units=km,switch=T !numEQ 23032
new line.CTR258385 bus1=BMT103339735.1.2.3,bus2=BMT150801787.1.2.3,Phases=3,LineCode=tieSwitch,Length=0.001,Units=km,switch=T !numEQ 23036
new line.CTR258399 bus1=BMT103315571.3,bus2=BMT171743956.3,Phases=1,LineCode=tieSwitch1,Length=0.001,Units=km,switch=T !numEQ 23038
new line.CTR258420 bus1=BMT158481240.1.2.3,bus2=BMT158481286.1.2.3,Phases=3,LineCode=tieSwitch,Length=0.001,Units=km,switch=T !numEQ 23040
new line.CTR258434 bus1=BMT103339693.1.2.3,bus2=BMT151658738.1.2.3,Phases=3,LineCode=tieSwitch,Length=0.001,Units=km,switch=T !numEQ 23041
new line.CTR258448 bus1=BMT103317181.2,bus2=BMT103317188.2,Phases=1,LineCode=tieSwitch1,Length=0.001,Units=km,switch=T !numEQ 23043
new line.CTR258511 bus1=BMT103347092.2,bus2=BMT103365572.2,Phases=1,LineCode=tieSwitch1,Length=0.001,Units=km,switch=T !numEQ 22985
new line.CTR258525 bus1=BMT103358873.1,bus2=BMT103359076.1,Phases=1,LineCode=tieSwitch1,Length=0.001,Units=km,switch=T !numEQ 22986
new line.CTR258539 bus1=BMT103359265.1,bus2=BMT103359279.1,Phases=1,LineCode=tieSwitch1,Length=0.001,Units=km,switch=T !numEQ 22988
new line.CTR258553 bus1=BMT158481296.1,bus2=BMT158481301.1,Phases=1,LineCode=tieSwitch1,Length=0.001,Units=km,switch=T !numEQ 22991
new line.CTR258658 bus1=BMT103385067.1.2.3,bus2=BMT3576876.1.2.3,Phases=3,LineCode=tieSwitch,Length=0.001,Units=km,switch=T !numEQ 22942
open line.CTR258658 term=1
new line.CTR176674 bus1=BMT103379089.1,bus2=BMT103379271.1,Phases=1,LineCode=tieSwitch1,Length=0.001,Units=km,switch=T !numEQ 104979
new line.CTR176716 bus1=BMT103399221.2,bus2=BMT103399235.2,Phases=1,LineCode=tieSwitch1,Length=0.001,Units=km,switch=T !numEQ 105010
new line.CTR176730 bus1=BMT103366510.3,bus2=BMT159303023.3,Phases=1,LineCode=tieSwitch1,Length=0.001,Units=km,switch=T !numEQ 105015
new line.CTR176744 bus1=BMT158008294.1,bus2=BMT151366247.1,Phases=1,LineCode=tieSwitch1,Length=0.001,Units=km,switch=T !numEQ 105017
open line.CTR176744 term=1
new line.CTR176758 bus1=BMT103376667.1,bus2=BMT103376751.1,Phases=1,LineCode=tieSwitch1,Length=0.001,Units=km,switch=T !numEQ 105019
new line.CTR176842 bus1=BMT103365586.2,bus2=BMT103365600.2,Phases=1,LineCode=tieSwitch1,Length=0.001,Units=km,switch=T !numEQ 105036
new line.CTR182330 bus1=BMT103341548.1,bus2=BMT103341562.1,Phases=1,LineCode=tieSwitch1,Length=0.001,Units=km,switch=T !numEQ 166310
new line.CTR188847 bus1=BMT103413977.3,bus2=BMT154035748.3,Phases=1,LineCode=tieSwitch1,Length=0.001,Units=km,switch=T !numEQ 203642
new line.CTR195252 bus1=BMT103334184.1,bus2=BMT103334198.1,Phases=1,LineCode=tieSwitch1,Length=0.001,Units=km,switch=T !numEQ 137364
new line.CTR195322 bus1=BMT103327086.1,bus2=BMT103327093.1,Phases=1,LineCode=tieSwitch1,Length=0.001,Units=km,switch=T !numEQ 147010
new line.CTR196064 bus1=BMT103335073.3,bus2=BMT150883834.3,Phases=1,LineCode=tieSwitch1,Length=0.001,Units=km,switch=T !numEQ 20376
new line.CTR1961 bus1=BMT103404247.1,bus2=BMT103409441.1,Phases=1,LineCode=tieSwitch1,Length=0.001,Units=km,switch=T !numEQ 191499
new line.CTR199165 bus1=BMT103360882.1,bus2=BMT103360924.1,Phases=1,LineCode=tieSwitch1,Length=0.001,Units=km,switch=T !numEQ 145138
new line.CTR199746 bus1=BMT103377864.1,bus2=BMT103377955.1,Phases=1,LineCode=tieSwitch1,Length=0.001,Units=km,switch=T !numEQ 165796
new line.CTR200054 bus1=BMT103542245.1,bus2=BMT103542294.1,Phases=1,LineCode=tieSwitch1,Length=0.001,Units=km,switch=T !numEQ 179729
new line.CTR200222 bus1=BMT103534489.1,bus2=BMT103535245.1,Phases=1,LineCode=tieSwitch1,Length=0.001,Units=km,switch=T !numEQ 166675
new line.CTR200789 bus1=BMT103413137.3,bus2=BMT154035945.3,Phases=1,LineCode=tieSwitch1,Length=0.001,Units=km,switch=T !numEQ 163715
new line.CTR2010 bus1=BMT103316957.1.2.3,bus2=BMT128031297.1.2.3,Phases=3,LineCode=tieSwitch,Length=0.001,Units=km,switch=T !numEQ 196861
new line.CTR201272 bus1=BMT103358929.1,bus2=BMT160843401.1,Phases=1,LineCode=tieSwitch1,Length=0.001,Units=km,switch=T !numEQ 144143
new line.CTR210099 bus1=BMT103400474.2,bus2=BMT103400593.2,Phases=1,LineCode=tieSwitch1,Length=0.001,Units=km,switch=T !numEQ 163810
new line.CTR220788 bus1=BMT103347141.1.2.3,bus2=BMT165903372.1.2.3,Phases=3,LineCode=tieSwitch,Length=0.001,Units=km,switch=T !numEQ 186864
new line.CTR221026 bus1=BMT139168479.1.2.3,bus2=BMT164837616.1.2.3,Phases=3,LineCode=tieSwitch,Length=0.001,Units=km,switch=T !numEQ 22290
new line.CTR233206 bus1=BMT103376520.1,bus2=BMT103376660.1,Phases=1,LineCode=tieSwitch1,Length=0.001,Units=km,switch=T !numEQ 105018
new line.CTR23374 bus1=BMT103416966.1,bus2=BMT172185673.1,Phases=1,LineCode=tieSwitch1,Length=0.001,Units=km,switch=T !numEQ 143524
new line.CTR245519 bus1=BMT103336291.3,bus2=BMT160136682.3,Phases=1,LineCode=tieSwitch1,Length=0.001,Units=km,switch=T !numEQ 164839
new line.CTR261836 bus1=BMT103542644.1,bus2=BMT103542686.1,Phases=1,LineCode=tieSwitch1,Length=0.001,Units=km,switch=T !numEQ 21907
new line.CTR261871 bus1=BMT103404135.1.2.3,bus2=BMT164113074.1.2.3,Phases=3,LineCode=tieSwitch,Length=0.001,Units=km,switch=T !numEQ 21936
new line.CTR261885 bus1=BMT103412955.3,bus2=BMT154035907.3,Phases=1,LineCode=tieSwitch1,Length=0.001,Units=km,switch=T !numEQ 21909
new line.CTR261892 bus1=BMT103339161.1.2.3,bus2=BMT163553091.1.2.3,Phases=3,LineCode=tieSwitch,Length=0.001,Units=km,switch=T !numEQ 21939
new line.CTR261906 bus1=BMT103337859.3,bus2=BMT103337922.3,Phases=1,LineCode=tieSwitch1,Length=0.001,Units=km,switch=T !numEQ 21943
new line.CTR261934 bus1=BMT103315354.1.2.3,bus2=BMT159452717.1.2.3,Phases=3,LineCode=tieSwitch,Length=0.001,Units=km,switch=T !numEQ 21949
new line.CTR261948 bus1=BMT103391038.2,bus2=BMT103391045.2,Phases=1,LineCode=tieSwitch1,Length=0.001,Units=km,switch=T !numEQ 21938
new line.CTR262025 bus1=BMT103387678.2,bus2=BMT103390513.2,Phases=1,LineCode=tieSwitch1,Length=0.001,Units=km,switch=T !numEQ 21892
new line.CTR262039 bus1=BMT103386803.1,bus2=BMT103386880.1,Phases=1,LineCode=tieSwitch1,Length=0.001,Units=km,switch=T !numEQ 21894
new line.CTR262081 bus1=BMT103334359.1,bus2=BMT151316473.1,Phases=1,LineCode=tieSwitch1,Length=0.001,Units=km,switch=T !numEQ 21871
new line.CTR262277 bus1=BMT158495416.1.2.3,bus2=BMT158495600.1.2.3,Phases=3,LineCode=tieSwitch,Length=0.001,Units=km,switch=T !numEQ 21770
new line.CTR262291 bus1=BMT103321682.1.2.3,bus2=BMT151457718.1.2.3,Phases=3,LineCode=tieSwitch,Length=0.001,Units=km,switch=T !numEQ 21773
new line.CTR262305 bus1=BMT103332063.1,bus2=BMT156823563.1,Phases=1,LineCode=tieSwitch1,Length=0.001,Units=km,switch=T !numEQ 21777
new line.CTR262396 bus1=BMT103332189.1,bus2=BMT156822141.1,Phases=1,LineCode=tieSwitch1,Length=0.001,Units=km,switch=T !numEQ 21729
new line.CTR262417 bus1=BMT103407859.2,bus2=BMT159194717.2,Phases=1,LineCode=tieSwitch1,Length=0.001,Units=km,switch=T !numEQ 21732
new line.CTR262445 bus1=BMT136466654.3,bus2=BMT160252529.3,Phases=1,LineCode=tieSwitch1,Length=0.001,Units=km,switch=T !numEQ 21725
new line.CTR262543 bus1=BMT103342402.1,bus2=BMT136473668.1,Phases=1,LineCode=tieSwitch1,Length=0.001,Units=km,switch=T !numEQ 21687
new line.CTR262557 bus1=BMT103333267.1.2.3,bus2=BMT156430137.1.2.3,Phases=3,LineCode=tieSwitch,Length=0.001,Units=km,switch=T !numEQ 21691
new line.CTR262599 bus1=BMT103325903.1.2.3,bus2=BMT103327702.1.2.3,Phases=3,LineCode=tieSwitch,Length=0.001,Units=km,switch=T !numEQ 21685
new line.CTR262613 bus1=BMT103318147.1.2.3,bus2=BMT103318154.1.2.3,Phases=3,LineCode=tieSwitch,Length=0.001,Units=km,switch=T !numEQ 21692
new line.CTR262627 bus1=BMT158481216.1.2.3,bus2=BMT158481292.1.2.3,Phases=3,LineCode=tieSwitch,Length=0.001,Units=km,switch=T !numEQ 21721
new line.CTR262683 bus1=BMT103334002.3,bus2=BMT157881841.3,Phases=1,LineCode=tieSwitch1,Length=0.001,Units=km,switch=T !numEQ 21703
new line.CTR262711 bus1=BMT103346518.1,bus2=BMT103379439.1,Phases=1,LineCode=tieSwitch1,Length=0.001,Units=km,switch=T !numEQ 21705
new line.CTR258672 bus1=BMT129618645.1.2.3,bus2=BMT171145794.1.2.3,Phases=3,LineCode=tieSwitch,Length=0.001,Units=km,switch=T !numEQ 22944
new line.CTR258735 bus1=BMT103316026.1.2.3,bus2=BMT176696071.1.2.3,Phases=3,LineCode=tieSwitch,Length=0.001,Units=km,switch=T !numEQ 22952
new line.CTR258763 bus1=BMT151124050.1.2.3,bus2=BMT103315102.1.2.3,Phases=3,LineCode=tieSwitch,Length=0.001,Units=km,switch=T !numEQ 22956
open line.CTR258763 term=1
new line.CTR258777 bus1=BMT103328395.1.2.3,bus2=BMT162759255.1.2.3,Phases=3,LineCode=tieSwitch,Length=0.001,Units=km,switch=T !numEQ 22957
new line.CTR264720 bus1=BMT103393635.3,bus2=BMT103394090.3,Phases=1,LineCode=tieSwitch1,Length=0.001,Units=km,switch=T !numEQ 21073
new line.CTR264748 bus1=BMT103337845.3,bus2=BMT167171314.3,Phases=1,LineCode=tieSwitch1,Length=0.001,Units=km,switch=T !numEQ 20994
new line.CTR264853 bus1=BMT103363885.3,bus2=BMT103364795.3,Phases=1,LineCode=tieSwitch1,Length=0.001,Units=km,switch=T !numEQ 20940
new line.CTR264958 bus1=BMT158480923.1.2.3,bus2=BMT158481010.1.2.3,Phases=3,LineCode=tieSwitch,Length=0.001,Units=km,switch=T !numEQ 20983
new line.CTR264972 bus1=BMT157830521.1.2.3,bus2=BMT103314836.1.2.3,Phases=3,LineCode=tieSwitch,Length=0.001,Units=km,switch=T !numEQ 20984
new line.CTR265000 bus1=BMT103356493.3,bus2=BMT103360105.3,Phases=1,LineCode=tieSwitch1,Length=0.001,Units=km,switch=T !numEQ 20894
new line.CTR265049 bus1=BMT103359545.1,bus2=BMT169307104.1,Phases=1,LineCode=tieSwitch1,Length=0.001,Units=km,switch=T !numEQ 20963
new line.CTR265077 bus1=BMT103401734.3,bus2=BMT103402266.3,Phases=1,LineCode=tieSwitch1,Length=0.001,Units=km,switch=T !numEQ 20899
new line.CTR265084 bus1=BMT164501619.1.2.3,bus2=BMT164501618.1.2.3,Phases=3,LineCode=tieSwitch,Length=0.001,Units=km,switch=T !numEQ 20836
new line.CTR265098 bus1=BMT170895579.1.2.3,bus2=BMT170895582.1.2.3,Phases=3,LineCode=tieSwitch,Length=0.001,Units=km,switch=T !numEQ 20844
new line.CTR265133 bus1=BMT103539816.1,bus2=BMT175263361.1,Phases=1,LineCode=tieSwitch1,Length=0.001,Units=km,switch=T !numEQ 20848
new line.CTR265147 bus1=BMT103385774.3,bus2=BMT158533434.3,Phases=1,LineCode=tieSwitch1,Length=0.001,Units=km,switch=T !numEQ 21613
new line.CTR266449 bus1=BMT103339350.1.2.3,bus2=BMT161906028.1.2.3,Phases=3,LineCode=tieSwitch,Length=0.001,Units=km,switch=T !numEQ 20422
new line.CTR266477 bus1=BMT103367329.3,bus2=BMT176063352.3,Phases=1,LineCode=tieSwitch1,Length=0.001,Units=km,switch=T !numEQ 20426
new line.CTR266491 bus1=BMT151309089.1.2.3,bus2=BMT153103872.1.2.3,Phases=3,LineCode=tieSwitch,Length=0.001,Units=km,switch=T !numEQ 20428
new line.CTR266505 bus1=BMT103321822.1.2.3,bus2=BMT155314069.1.2.3,Phases=3,LineCode=tieSwitch,Length=0.001,Units=km,switch=T !numEQ 20430
new line.CTR266519 bus1=BMT151678256.1.2.3,bus2=BMT171859787.1.2.3,Phases=3,LineCode=tieSwitch,Length=0.001,Units=km,switch=T !numEQ 20432
new line.CTR266582 bus1=BMT158495284.1.2.3,bus2=BMT159292850.1.2.3,Phases=3,LineCode=tieSwitch,Length=0.001,Units=km,switch=T !numEQ 20441
new line.CTR266666 bus1=BMT176451023.1.2.3,bus2=BMT103339595.1.2.3,Phases=3,LineCode=tieSwitch,Length=0.001,Units=km,switch=T !numEQ 20388
new line.CTR266680 bus1=BMT103405262.3,bus2=BMT103406088.3,Phases=1,LineCode=tieSwitch1,Length=0.001,Units=km,switch=T !numEQ 20390
new line.CTR266694 bus1=BMT158495386.1.2.3,bus2=BMT172109654.1.2.3,Phases=3,LineCode=tieSwitch,Length=0.001,Units=km,switch=T !numEQ 20392
new line.CTR266736 bus1=BMT103382750.2,bus2=BMT103382841.2,Phases=1,LineCode=tieSwitch1,Length=0.001,Units=km,switch=T !numEQ 20400
new line.CTR266834 bus1=BMT103383982.2,bus2=BMT103383989.2,Phases=1,LineCode=tieSwitch1,Length=0.001,Units=km,switch=T !numEQ 20344
new line.CTR266848 bus1=BMT158495365.1.2.3,bus2=BMT159292450.1.2.3,Phases=3,LineCode=tieSwitch,Length=0.001,Units=km,switch=T !numEQ 20346
new line.CTR266855 bus1=BMT103385298.1.2.3,bus2=BMT170847444.1.2.3,Phases=3,LineCode=tieSwitch,Length=0.001,Units=km,switch=T !numEQ 20349
new line.CTR266869 bus1=BMT103404058.1.2.3,bus2=BMT103409798.1.2.3,Phases=3,LineCode=tieSwitch,Length=0.001,Units=km,switch=T !numEQ 20353
new line.CTR266890 bus1=BMT103404254.1.2.3,bus2=BMT159319250.1.2.3,Phases=3,LineCode=tieSwitch,Length=0.001,Units=km,switch=T !numEQ 20355
new line.CTR266904 bus1=BMT103534125.1.2.3,bus2=BMT173355269.1.2.3,Phases=3,LineCode=tieSwitch,Length=0.001,Units=km,switch=T !numEQ 20259
new line.CTR267030 bus1=BMT173797747.1.2.3,bus2=BMT95242835.1.2.3,Phases=3,LineCode=tieSwitch,Length=0.001,Units=km,switch=T !numEQ 20301
open line.CTR267030 term=1
new line.CTR267128 bus1=BMT171673679.1.2.3,bus2=BMT3620976.1.2.3,Phases=3,LineCode=tieSwitch,Length=0.001,Units=km,switch=T !numEQ 240294
new line.CTR267142 bus1=BMT170191243.1.2.3,bus2=BMT103533453.1.2.3,Phases=3,LineCode=tieSwitch,Length=0.001,Units=km,switch=T !numEQ 20252
open line.CTR267142 term=1
new line.CTR267156 bus1=BMT162891828.1.2.3,bus2=BMT103533565.1.2.3,Phases=3,LineCode=tieSwitch,Length=0.001,Units=km,switch=T !numEQ 20254
new line.CTR267198 bus1=BMT150807780.1.2.3,bus2=BMT154824808.1.2.3,Phases=3,LineCode=tieSwitch,Length=0.001,Units=km,switch=T !numEQ 20164
new line.CTR267212 bus1=BMT136909971.1.2.3,bus2=BMT172843980.1.2.3,Phases=3,LineCode=tieSwitch,Length=0.001,Units=km,switch=T !numEQ 20166
new line.CTR267240 bus1=BMT158495504.1.2.3,bus2=BMT158495538.1.2.3,Phases=3,LineCode=tieSwitch,Length=0.001,Units=km,switch=T !numEQ 20197
new line.CTR267254 bus1=BMT103329088.1.2.3,bus2=BMT172065055.1.2.3,Phases=3,LineCode=tieSwitch,Length=0.001,Units=km,switch=T !numEQ 20199
new line.CTR267268 bus1=BMT103329326.1,bus2=BMT103332721.1,Phases=1,LineCode=tieSwitch1,Length=0.001,Units=km,switch=T !numEQ 165597
new line.CTR267282 bus1=BMT103363759.3,bus2=BMT166573763.3,Phases=1,LineCode=tieSwitch1,Length=0.001,Units=km,switch=T !numEQ 20203
new line.CTR267296 bus1=BMT103382813.2,bus2=BMT103382820.2,Phases=1,LineCode=tieSwitch1,Length=0.001,Units=km,switch=T !numEQ 20210
new line.CTR267324 bus1=BMT103361540.3,bus2=BMT103361568.3,Phases=1,LineCode=tieSwitch1,Length=0.001,Units=km,switch=T !numEQ 199644
new line.CTR267331 bus1=BMT156430140.1.2.3,bus2=BMT2774060.1.2.3,Phases=3,LineCode=tieSwitch,Length=0.001,Units=km,switch=T !numEQ 20127
open line.CTR267331 term=1
new line.CTR267345 bus1=BMT103333246.1.2.3,bus2=BMT154982175.1.2.3,Phases=3,LineCode=tieSwitch,Length=0.001,Units=km,switch=T !numEQ 20128
new line.CTR267359 bus1=BMT136910195.1.2.3,bus2=BMT103329067.1.2.3,Phases=3,LineCode=tieSwitch,Length=0.001,Units=km,switch=T !numEQ 20130
new line.CTR262767 bus1=BMT176451018.1.2.3,bus2=BMT176451024.1.2.3,Phases=3,LineCode=tieSwitch,Length=0.001,Units=km,switch=T !numEQ 21677
new line.CTR262781 bus1=BMT103405640.3,bus2=BMT103405654.3,Phases=1,LineCode=tieSwitch1,Length=0.001,Units=km,switch=T !numEQ 21679
new line.CTR262795 bus1=BMT103376240.1,bus2=BMT161069872.1,Phases=1,LineCode=tieSwitch1,Length=0.001,Units=km,switch=T !numEQ 21657
new line.CTR262879 bus1=BMT103346924.2,bus2=BMT103346945.2,Phases=1,LineCode=tieSwitch1,Length=0.001,Units=km,switch=T !numEQ 21651
new line.CTR262893 bus1=BMT103364732.3,bus2=BMT14859861.3,Phases=1,LineCode=tieSwitch1,Length=0.001,Units=km,switch=T !numEQ 21601
open line.CTR262893 term=1
new line.CTR262921 bus1=BMT157125334.1,bus2=BMT157125335.1,Phases=1,LineCode=tieSwitch1,Length=0.001,Units=km,switch=T !numEQ 21605
new line.CTR262949 bus1=BMT163293528.3,bus2=BMT163293540.3,Phases=1,LineCode=tieSwitch1,Length=0.001,Units=km,switch=T !numEQ 21550
new line.CTR262977 bus1=BMT103405045.3,bus2=BMT103405052.3,Phases=1,LineCode=tieSwitch1,Length=0.001,Units=km,switch=T !numEQ 20212
new line.CTR263096 bus1=BMT172026182.3,bus2=BMT103337607.3,Phases=1,LineCode=tieSwitch1,Length=0.001,Units=km,switch=T !numEQ 20034
new line.CTR263110 bus1=BMT103382876.2,bus2=BMT103382897.2,Phases=1,LineCode=tieSwitch1,Length=0.001,Units=km,switch=T !numEQ 21507
new line.CTR263166 bus1=BMT103385473.1.2.3,bus2=BMT103403190.1.2.3,Phases=3,LineCode=tieSwitch,Length=0.001,Units=km,switch=T !numEQ 20354
new line.CTR263278 bus1=BMT154510999.1.2.3,bus2=BMT154511089.1.2.3,Phases=3,LineCode=tieSwitch,Length=0.001,Units=km,switch=T !numEQ 21535
new line.CTR263691 bus1=BMT103410267.1.2.3,bus2=BMT159741786.1.2.3,Phases=3,LineCode=tieSwitch,Length=0.001,Units=km,switch=T !numEQ 23562
new line.CTR263852 bus1=BMT103321150.1.2.3,bus2=BMT103321164.1.2.3,Phases=3,LineCode=tieSwitch,Length=0.001,Units=km,switch=T !numEQ 21288
...